                                  MODFLOW-2005     
      U.S. GEOLOGICAL SURVEY MODULAR FINITE-DIFFERENCE GROUND-WATER FLOW MODEL
                            VERSION 1.12.00 2/3/2017

 LIST FILE: m.lst
                         UNIT    7

 OPENING m.bas
 FILE TYPE:BAS6   UNIT    1   STATUS:OLD    
 FORMAT:FORMATTED              ACCESS:SEQUENTIAL          

 OPENING m.dis
 FILE TYPE:DIS   UNIT   29   STATUS:OLD    
 FORMAT:FORMATTED              ACCESS:SEQUENTIAL          

 OPENING m.lpf
 FILE TYPE:LPF   UNIT   11   STATUS:OLD    
 FORMAT:FORMATTED              ACCESS:SEQUENTIAL          

 OPENING m.chd
 FILE TYPE:CHD   UNIT   17   STATUS:OLD    
 FORMAT:FORMATTED              ACCESS:SEQUENTIAL          

 OPENING m.wel
 FILE TYPE:WEL   UNIT   12   STATUS:OLD    
 FORMAT:FORMATTED              ACCESS:SEQUENTIAL          

 OPENING m.riv
 FILE TYPE:RIV   UNIT   14   STATUS:OLD    
 FORMAT:FORMATTED              ACCESS:SEQUENTIAL          

 OPENING m.rch
 FILE TYPE:RCH   UNIT   18   STATUS:OLD    
 FORMAT:FORMATTED              ACCESS:SEQUENTIAL          

 OPENING m.oc
 FILE TYPE:OC   UNIT   22   STATUS:OLD    
 FORMAT:FORMATTED              ACCESS:SEQUENTIAL          

 OPENING m.pcg
 FILE TYPE:PCG   UNIT   19   STATUS:OLD    
 FORMAT:FORMATTED              ACCESS:SEQUENTIAL          

 OPENING m.hob
 FILE TYPE:HOB   UNIT  101   STATUS:OLD    
 FORMAT:FORMATTED              ACCESS:SEQUENTIAL          

 OPENING m.cbc
 FILE TYPE:DATA(BINARY)   UNIT   50   STATUS:UNKNOWN
 FORMAT:UNFORMATTED            ACCESS:STREAM              

 OPENING m.hds
 FILE TYPE:DATA(BINARY)   UNIT   30   STATUS:UNKNOWN
 FORMAT:UNFORMATTED            ACCESS:STREAM              

 BAS -- BASIC PACKAGE, VERSION 7, 5/2/2005 INPUT READ FROM UNIT    1

 MODFLOW was compiled using mixed precision
 Precision of REAL variables:           6
 Precision of DOUBLE PRECISION variables:          15

 DISCRETIZATION INPUT DATA READ FROM UNIT   29
 # MODFLOW2000 Discretization File
    1 LAYERS        40 ROWS        20 COLUMNS
    2 STRESS PERIOD(S) IN SIMULATION
 MODEL TIME UNIT IS DAYS
 MODEL LENGTH UNIT IS METERS
  Confining bed flag for each layer:
   0

                     DELR =   250.000    

                     DELC =   250.000    

 TOP ELEVATION OF LAYER 1 =   35.0000    



             MODEL LAYER BOTTOM EL. FOR LAYER   1
 READING ON UNIT   29 WITH FORMAT: (10e12.4)           


 STRESS PERIOD     LENGTH       TIME STEPS     MULTIPLIER FOR DELT    SS FLAG
 ----------------------------------------------------------------------------
        1         1.000000          1                    1.000         SS
        2         1.000000          1                    1.000         SS

 STEADY-STATE SIMULATION




 # MODFLOW2005 Basic Package                                                     
 #MODFLOW Data Set Created by Groundwater Vistas                                 
 #
 THE FREE FORMAT OPTION HAS BEEN SELECTED



                     BOUNDARY ARRAY FOR LAYER   1
 READING ON UNIT    1 WITH FORMAT: (25I3)              

 AQUIFER HEAD WILL BE SET TO   999.00     AT ALL NO-FLOW NODES (IBOUND=0).

             INITIAL HEAD =   45.0000     FOR LAYER   1

 OUTPUT CONTROL IS SPECIFIED ONLY AT TIME STEPS FOR WHICH OUTPUT IS DESIRED
 COMPACT CELL-BY-CELL BUDGET FILES WILL BE WRITTEN
 HEAD PRINT FORMAT CODE IS   0    DRAWDOWN PRINT FORMAT CODE IS   0
 HEADS WILL BE SAVED ON UNIT   30    DRAWDOWNS WILL BE SAVED ON UNIT    0

 LPF -- LAYER-PROPERTY FLOW PACKAGE, VERSION 7, 5/2/2005
         INPUT READ FROM UNIT   11
 # MODFLOW2000 Layer Property Flow (LPF) Package
 CELL-BY-CELL FLOWS WILL BE SAVED ON UNIT   50
 HEAD AT CELLS THAT CONVERT TO DRY= -1.00000E+30
 No named parameters

   LAYER FLAGS:
 LAYER       LAYTYP        LAYAVG         CHANI        LAYVKA        LAYWET
 ---------------------------------------------------------------------------
    1             1             0     1.000E+00             0             0

   INTERPRETATION OF LAYER FLAGS:
                        INTERBLOCK     HORIZONTAL    DATA IN
         LAYER TYPE   TRANSMISSIVITY   ANISOTROPY   ARRAY VKA   WETTABILITY
 LAYER      (LAYTYP)      (LAYAVG)       (CHANI)      (LAYVKA)      (LAYWET)
 ---------------------------------------------------------------------------
    1   CONVERTIBLE      HARMONIC     1.000E+00    VERTICAL K  NON-WETTABLE

 WETTING CAPABILITY IS NOT ACTIVE IN ANY LAYER



              HYD. COND. ALONG ROWS FOR LAYER   1
 READING ON UNIT   11 WITH FORMAT: (10e12.4)           

           1          2          3          4          5          6          7          8          9         10         11
          12         13         14         15         16         17         18         19         20
 .........................................................................................................................
   1    12.5       12.2       12.5       9.59       9.74       10.3       9.10       9.92       10.5       8.99       7.99    
        8.24       7.86       10.0       9.70       9.16       9.83       9.90       9.68       9.57    
   2    12.8       12.8       9.03       10.0       9.11       9.58       9.14       9.77       10.3       8.52       7.94    
        8.71       7.98       9.06       10.3       9.29       7.05       9.84       10.1       8.79    
   3    12.2       13.7       9.41       9.74       9.98       9.57       9.45       10.0       8.97       7.73       7.47    
        7.57       7.42       10.3       9.10       9.82       7.11       9.22       9.50       8.60    
   4    9.28       8.10       9.98       10.2       9.76       9.82       9.31       9.32       9.54       7.80       7.37    
        8.16       8.07       8.71       8.52       7.08       7.35       9.80       9.17       9.30    
   5    9.33       8.29       9.59       9.80       10.5       9.67       7.69       7.92       8.34       7.62       8.29    
        8.27       7.63       9.47       9.06       6.65       7.54       8.69       9.83       8.66    
   6    9.55       7.18       8.51       8.00       7.04       7.93       7.60       7.95       8.15       7.47       7.60    
        7.91       8.17       9.54       8.55       7.50       8.15       9.47       9.40       8.75    
   7    9.76       7.97       8.02       7.06       6.86       7.72       7.55       7.54       7.84       8.00       6.22    
        6.99       7.62       7.60       6.97       8.16       8.29       7.72       7.66       9.92    
   8    9.42       7.77       8.14       9.82       9.44       9.39       9.72       6.91       7.51       7.46       5.83    
        7.29       8.41       7.87       7.92       8.61       7.00       7.28       8.45       9.36    
   9    10.2       7.22       7.64       10.2       0.00       0.00       0.00       9.35       7.80       7.32       5.56    
        7.43       7.44       7.83       7.87       7.73       7.29       8.40       7.83       10.1    
  10    9.33       8.19       7.88       9.35       0.00       0.00       0.00       0.00       10.0       7.31       6.45    
        7.33       7.16       7.52       7.94       8.07       8.68       7.68       8.12       9.85    
  11    10.1       7.29       7.28       8.76       0.00       0.00       0.00       0.00       9.00       7.85       5.26    
        5.52       5.97       7.60       7.96       6.94       8.05       6.66       8.02       7.23    
  12    10.1       8.25       7.66       8.72       0.00       0.00       0.00       0.00       9.42       7.78       6.35    
        6.52       6.02       6.96       8.04       5.39       9.02       7.05       7.95       8.92    
  13    9.25       8.36       7.44       9.27       0.00       0.00       0.00       0.00       9.57       7.77       5.28    
        8.00       7.21       8.20       7.89       7.67       7.34       7.92       6.98       7.39    
  14    9.37       7.58       7.03       10.2       0.00       0.00       0.00       0.00       8.97       7.58       6.08    
        5.95       5.70       7.90       8.63       6.78       8.39       7.51       8.59       7.51    
  15    9.51       7.41       7.53       10.4       0.00       0.00       0.00       0.00       7.66       7.32       4.85    
        6.50       6.19       6.02       6.02       6.32       6.05       7.17       7.68       10.2    
  16    8.93       7.94       7.99       9.10       0.00       0.00       0.00       0.00       7.64       5.81       4.10    
        5.68       6.29       6.04       6.22       5.86       6.64       8.17       8.10       9.10    
  17    9.97       7.91       7.92       9.70       0.00       0.00       0.00       0.00       6.96       6.32       4.20    
        6.52       6.18       6.26       5.81       5.41       5.65       7.74       7.81       10.2    
  18    9.41       7.24       8.23       8.90       0.00       0.00       0.00       0.00       7.13       6.68       4.55    
        4.91       6.31       6.21       6.37       6.63       6.28       7.41       7.70       9.73    
  19    9.43       8.03       8.18       8.97       0.00       0.00       0.00       0.00       7.05       5.61       4.71    
        3.51       5.16       6.11       6.52       6.56       5.88       7.61       8.70       9.63    
  20    9.48       7.96       7.24       9.63       0.00       0.00       0.00       0.00       8.45       6.41       4.13    
        3.89       5.12       6.06       6.04       6.56       5.96       7.59       7.54       9.68    
  21    9.99       7.28       7.89       10.5       0.00       0.00       0.00       0.00       7.75       6.01       4.32    
        4.49       3.30       6.84       6.05       5.95       5.81       6.94       7.16       9.41    
  22    9.56       7.84       8.32       10.1       0.00       0.00       9.77       9.54       7.70       6.14       4.43    
        3.57       4.21       5.95       6.26       5.70       6.20       8.15       7.62       8.92    
  23    9.19       7.87       7.16       9.93       9.43       0.00       9.80       7.25       7.46       5.82       4.13    
        3.91       3.37       6.62       6.12       6.36       4.61       6.70       7.50       9.46    
  24    9.81       8.24       7.54       7.64       8.88       9.50       8.41       7.32       8.57       6.23       4.38    
        4.54       4.06       6.29       6.43       4.46       6.53       5.99       8.22       7.71    
  25    9.78       7.95       7.92       8.00       7.94       7.86       7.70       7.18       5.63       6.68       4.55    
        4.44       3.59       5.82       6.60       4.12       6.14       6.55       8.08       8.13    
  26    9.87       7.88       8.29       5.82       7.88       7.30       7.71       8.20       6.00       6.05       4.16    
        4.27       4.11       6.71       6.52       4.15       6.68       6.82       8.16       7.64    
  27    10.2       7.24       8.56       7.92       5.74       7.56       7.77       5.62       5.94       4.51       1.49    
        4.63       3.99       4.24       4.31       3.90       5.35       5.42       6.31       8.20    
  28    8.74       9.29       7.25       7.67       7.98       7.17       5.28       4.73       5.96       3.41       3.45    
        4.22       4.37       4.05       4.23       3.91       4.51       6.07       6.21       6.83    
  29    9.05       9.55       7.86       7.81       8.35       6.35       4.89       1.15       6.01       5.28       2.81    
        4.70       4.51       3.70       4.69       2.33       4.04       4.19       6.38       6.65    
  30    8.84       10.1       8.42       8.45       8.63       6.58       1.37       1.61       1.35       2.86       2.15    
        4.30       4.71       4.06       4.39       2.35       3.24       4.35       4.47       5.22    
  31    9.57       7.37       7.36       7.96       6.27       3.39       2.56       1.70       2.84       2.14       2.70    
        4.18       4.75       4.32       2.88       1.40       2.29       1.81       4.00       4.17    
  32    9.44       7.45       7.52       7.83       8.31       5.73      0.753       2.39       2.48       3.09       2.30    
        2.93       4.74       4.62       1.59       1.61       2.11       1.88       4.48       4.97    
  33    0.00       7.88       7.63       7.75       7.62       7.43       5.96       4.13      0.347       2.29       2.13    
        1.74       1.60       5.18       4.35       3.90       2.23       3.95       4.12       6.48    
  34    0.00       0.00       7.03       7.74       8.44       5.66       6.16       4.56       3.40       3.30       2.15    
        2.19       1.53       4.42       3.79       4.40       3.68       4.96       5.74       7.81    
  35    0.00       0.00       0.00       5.72       6.60       5.59       5.27       6.69       3.47       2.27       1.92    
        1.24       3.35       3.96       4.23       4.66       4.28       4.01       6.63       7.65    
  36    0.00       0.00       0.00       0.00       6.44       6.41       6.16       4.52       4.22       1.37       2.20    
        1.83       2.33       4.64       4.29       4.05       4.07       5.77       8.76       0.00    
  37    0.00       0.00       0.00       0.00       7.53       6.20       5.59       4.68       4.44       2.24       2.27    
        2.57       1.76       4.46       3.54       4.40       6.42       6.14       7.61       0.00    
  38    0.00       0.00       0.00       0.00       0.00       6.43       5.96       4.13       5.37       1.37       1.76    
        2.35       1.49       1.80       2.47       4.71       4.38       5.45       0.00       0.00    
  39    0.00       0.00       0.00       0.00       0.00       5.94       6.80       5.65       4.54       2.01       2.11    
        2.53       2.38       1.55       2.82       3.67       5.48       0.00       0.00       0.00    
  40    0.00       0.00       0.00       0.00       0.00       8.19       4.59       4.41       2.28       2.47       2.06    
        1.39       1.55       1.31       3.99       0.00       0.00       0.00       0.00       0.00    



                VERTICAL HYD. COND. FOR LAYER   1
 READING ON UNIT   11 WITH FORMAT: (10e12.4)           

 WEL -- WELL PACKAGE, VERSION 7, 5/2/2005 INPUT READ FROM UNIT   12
 # MODFLOW2000 Well Package
          0 Named Parameters              0 List entries
 MAXIMUM OF      6 ACTIVE WELLS AT ONE TIME
 CELL-BY-CELL FLOWS WILL BE SAVED ON UNIT   50
 AUXILIARY WELL VARIABLE: IFACE           


     0 Well parameters

 RIV -- RIVER PACKAGE, VERSION 7, 5/2/2005 INPUT READ FROM UNIT   14
 # MODFLOW2000 River Package
          0 Named Parameters              0 List entries
 MAXIMUM OF     40 ACTIVE RIVER REACHES AT ONE TIME
 CELL-BY-CELL FLOWS WILL BE SAVED ON UNIT   50
 AUXILIARY RIVER VARIABLE: IFACE           


     0 River parameters

 RCH -- RECHARGE PACKAGE, VERSION 7, 5/2/2005 INPUT READ FROM UNIT   18
 # MODFLOW2000 Recharge Package
 No named parameters
 OPTION 3 -- RECHARGE TO HIGHEST ACTIVE NODE IN EACH VERTICAL COLUMN
 CELL-BY-CELL FLOWS WILL BE SAVED ON UNIT   50


     0 Recharge parameters

 CHD -- TIME-VARIANT SPECIFIED-HEAD OPTION, VERSION 7, 5/2/2005
 INPUT READ FROM UNIT   17
 # MODFLOW-2005 CHD Package
 No named parameters
 MAXIMUM OF     10 TIME-VARIANT SPECIFIED-HEAD CELLS AT ONE TIME


     0 TIME-VARIANT SPECIFIED-HEAD PARAMETERS

 PCG -- CONJUGATE-GRADIENT SOLUTION PACKAGE, VERSION 7, 5/2/2005
 MAXIMUM OF    100 CALLS OF SOLUTION ROUTINE
 MAXIMUM OF     25 INTERNAL ITERATIONS PER CALL TO SOLUTION ROUTINE
 MATRIX PRECONDITIONING TYPE :    1



                                    SOLUTION BY THE CONJUGATE-GRADIENT METHOD
                                   -------------------------------------------
                    MAXIMUM NUMBER OF CALLS TO PCG ROUTINE =      100
                        MAXIMUM ITERATIONS PER CALL TO PCG =       25
                               MATRIX PRECONDITIONING TYPE =        1
        RELAXATION FACTOR (ONLY USED WITH PRECOND. TYPE 1) =    0.10000E+01
 PARAMETER OF POLYNOMIAL PRECOND. = 2 (2) OR IS CALCULATED :        2
                         HEAD CHANGE CRITERION FOR CLOSURE =    0.10000E-04
                     RESIDUAL CHANGE CRITERION FOR CLOSURE =    0.10000E-02
            PCG HEAD AND RESIDUAL CHANGE PRINTOUT INTERVAL =        5
     PRINTING FROM SOLVER IS LIMITED(1) OR SUPPRESSED (>1) =        0
                            STEADY-STATE DAMPING PARAMETER =    0.10000E+01
                               TRANSIENT DAMPING PARAMETER =    0.10000E+01

 OBS2BAS7 -- HEAD OBSERVATIONS, VERSION 2.0, 2/28/2006
 INPUT READ FROM UNIT 101
 # HOB package for  MODFLOW-2005, generated by Flopy.

 NUMBER OF HEADS....................................:   32
   NUMBER OF MULTILAYER HEADS.......................:    0
   MAXIMUM NUMBER OF LAYERS FOR MULTILAYER HEADS....:    0
 HEAD OBSERVATIONS WILL NOT BE SAVED IN A FILE
 SIMULATED EQUIVALENT HEAD AT DRY CELLS WILL BE:    0.00000    

 OBSERVED HEAD DATA -- TIME OFFSETS ARE MULTIPLIED BY:   1.0000    

                    REFER.
       OBSERVATION  STRESS    TIME
  OBS#    NAME      PERIOD   OFFSET    OBSERVATION
     1 OBS1             1    0.000       22.46    
 Observation within a steady-state time step has been moved to the end of the time step.
     2 OBS2             1    0.000       19.90    
 Observation within a steady-state time step has been moved to the end of the time step.
     3 OBS3             1    0.000       23.00    
 Observation within a steady-state time step has been moved to the end of the time step.
     4 OBS4             1    0.000       29.16    
 Observation within a steady-state time step has been moved to the end of the time step.
     5 OBS5             1    0.000       18.91    
 Observation within a steady-state time step has been moved to the end of the time step.
     6 OBS6             1    0.000       17.66    
 Observation within a steady-state time step has been moved to the end of the time step.
     7 OBS7             1    0.000       18.93    
 Observation within a steady-state time step has been moved to the end of the time step.
     8 OBS8             1    0.000       16.11    
 Observation within a steady-state time step has been moved to the end of the time step.
     9 OBS9             1    0.000       24.41    
 Observation within a steady-state time step has been moved to the end of the time step.
    10 OBS10            1    0.000       22.97    
 Observation within a steady-state time step has been moved to the end of the time step.
    11 OBS11            1    0.000       15.20    
 Observation within a steady-state time step has been moved to the end of the time step.
    12 OBS12            1    0.000       20.43    
 Observation within a steady-state time step has been moved to the end of the time step.
    13 OBS13            1    0.000       16.55    
 Observation within a steady-state time step has been moved to the end of the time step.
    14 OBS14            1    0.000       15.60    
 Observation within a steady-state time step has been moved to the end of the time step.
    15 OBS15            1    0.000       13.00    
 Observation within a steady-state time step has been moved to the end of the time step.
    16 OBS16            1    0.000       12.00    
 Observation within a steady-state time step has been moved to the end of the time step.
    17 OBS1p            2    0.000       22.29    
 Observation within a steady-state time step has been moved to the end of the time step.
    18 OBS2p            2    0.000       19.73    
 Observation within a steady-state time step has been moved to the end of the time step.
    19 OBS3p            2    0.000       22.79    
 Observation within a steady-state time step has been moved to the end of the time step.
    20 OBS4p            2    0.000       28.83    
 Observation within a steady-state time step has been moved to the end of the time step.
    21 OBS5p            2    0.000       18.50    
 Observation within a steady-state time step has been moved to the end of the time step.
    22 OBS6p            2    0.000       17.55    
 Observation within a steady-state time step has been moved to the end of the time step.
    23 OBS7p            2    0.000       18.36    
 Observation within a steady-state time step has been moved to the end of the time step.
    24 OBS8p            2    0.000       16.09    
 Observation within a steady-state time step has been moved to the end of the time step.
    25 OBS9p            2    0.000       23.57    
 Observation within a steady-state time step has been moved to the end of the time step.
    26 OBS10p           2    0.000       22.04    
 Observation within a steady-state time step has been moved to the end of the time step.
    27 OBS11p           2    0.000       15.19    
 Observation within a steady-state time step has been moved to the end of the time step.
    28 OBS12p           2    0.000       19.28    
 Observation within a steady-state time step has been moved to the end of the time step.
    29 OBS13p           2    0.000       15.09    
 Observation within a steady-state time step has been moved to the end of the time step.
    30 OBS14p           2    0.000       15.60    
 Observation within a steady-state time step has been moved to the end of the time step.
    31 OBS15p           2    0.000       13.00    
 Observation within a steady-state time step has been moved to the end of the time step.
    32 OBS16p           2    0.000       12.00    
 Observation within a steady-state time step has been moved to the end of the time step.

                                                     HEAD CHANGE
                                                      REFERENCE
        OBSERVATION                   ROW     COL    OBSERVATION
  OBS#     NAME       LAY  ROW  COL  OFFSET  OFFSET   (IF > 0)
     1  OBS1            1    4   11   0.000   0.000        0
     2  OBS2            1    4   17   0.000   0.000        0
     3  OBS3            1    5   10   0.000   0.000        0
     4  OBS4            1   11    3   0.000   0.000        0
     5  OBS5            1   15   12   0.000   0.000        0
     6  OBS6            1   17   18   0.000   0.000        0
     7  OBS7            1   23   12   0.000   0.000        0
     8  OBS8            1   24   17   0.000   0.000        0
     9  OBS9            1   26    6   0.000   0.000        0
    10  OBS10           1   28    8   0.000   0.000        0
    11  OBS11           1   31   17   0.000   0.000        0
    12  OBS12           1   35    9   0.000   0.000        0
    13  OBS13           1   36   12   0.000   0.000        0
    14  OBS14           1   40    9   0.000   0.000        0
    15  OBS15           1   40   12   0.000   0.000        0
    16  OBS16           1   40   14   0.000   0.000        0
    17  OBS1p           1    4   11   0.000   0.000        0
    18  OBS2p           1    4   17   0.000   0.000        0
    19  OBS3p           1    5   10   0.000   0.000        0
    20  OBS4p           1   11    3   0.000   0.000        0
    21  OBS5p           1   15   12   0.000   0.000        0
    22  OBS6p           1   17   18   0.000   0.000        0
    23  OBS7p           1   23   12   0.000   0.000        0
    24  OBS8p           1   24   17   0.000   0.000        0
    25  OBS9p           1   26    6   0.000   0.000        0
    26  OBS10p          1   28    8   0.000   0.000        0
    27  OBS11p          1   31   17   0.000   0.000        0
    28  OBS12p          1   35    9   0.000   0.000        0
    29  OBS13p          1   36   12   0.000   0.000        0
    30  OBS14p          1   40    9   0.000   0.000        0
    31  OBS15p          1   40   12   0.000   0.000        0
    32  OBS16p          1   40   14   0.000   0.000        0
1
                            STRESS PERIOD NO.    1, LENGTH =   1.000000    
                            -----------------------------------------------

                              NUMBER OF TIME STEPS =     1

                               MULTIPLIER FOR DELT =     1.000

                            INITIAL TIME STEP SIZE =   1.000000    

      0 WELLS

 REACH NO.  LAYER   ROW   COL     STAGE      CONDUCTANCE     BOTTOM EL.         IFACE           
 -----------------------------------------------------------------------------------------------
      1      1      1     15       20.10           4320.           20.00           0.000    
      2      1      2     15       19.87           4320.           19.75           0.000    
      3      1      3     15       19.65           4320.           19.50           0.000    
      4      1      4     15       19.42           4320.           19.25           0.000    
      5      1      5     15       19.19           4320.           19.00           0.000    
      6      1      6     15       18.97           4320.           18.75           0.000    
      7      1      7     15       18.74           4320.           18.50           0.000    
      8      1      8     15       18.51           4320.           18.25           0.000    
      9      1      9     15       18.28           4320.           18.00           0.000    
     10      1     10     15       19.06           4320.           17.75           0.000    
     11      1     11     15       17.83           4320.           17.50           0.000    
     12      1     12     15       17.60           4320.           17.25           0.000    
     13      1     13     15       17.38           4320.           17.00           0.000    
     14      1     14     15       17.15           4320.           16.75           0.000    
     15      1     15     15       16.92           4320.           16.50           0.000    
     16      1     16     15       16.70           4320.           16.25           0.000    
     17      1     17     15       16.47           4320.           16.00           0.000    
     18      1     18     15       16.24           4320.           15.75           0.000    
     19      1     19     15       16.02           4320.           15.50           0.000    
     20      1     20     15       15.79           4320.           15.25           0.000    
     21      1     21     15       15.56           4320.           15.00           0.000    
     22      1     22     15       15.33           4320.           14.75           0.000    
     23      1     23     15       15.11           4320.           14.50           0.000    
     24      1     24     15       14.88           4320.           14.25           0.000    
     25      1     25     15       14.65           4320.           14.00           0.000    
     26      1     26     15       14.43           4320.           13.75           0.000    
     27      1     27     15       14.20           4320.           13.50           0.000    
     28      1     28     15       13.97           4320.           13.25           0.000    
     29      1     29     15       13.75           4320.           13.00           0.000    
     30      1     30     15       13.52           4320.           12.75           0.000    
     31      1     31     15       13.29           4320.           12.50           0.000    
     32      1     32     15       13.07           4320.           12.25           0.000    
     33      1     33     15       12.84           4320.           12.00           0.000    
     34      1     34     15       12.61           4320.           11.75           0.000    
     35      1     35     15       12.38           4320.           11.50           0.000    
     36      1     36     15       12.16           4320.           11.25           0.000    
     37      1     37     15       11.93           4320.           11.00           0.000    
     38      1     38     15       11.70           4320.           10.75           0.000    
     39      1     39     15       11.48           4320.           10.50           0.000    
     40      1     40     15       11.25           4320.           10.25           0.000    

     40 RIVER REACHES

                 RECHARGE =  1.382400E-04

 CHD NO.   LAYER   ROW   COL    START HEAD        END HEAD         
 ------------------------------------------------------------------
      1      1     40      6       16.90           16.90    
      2      1     40      7       16.40           16.40    
      3      1     40      8       16.10           16.10    
      4      1     40      9       15.60           15.60    
      5      1     40     10       15.10           15.10    
      6      1     40     11       14.00           14.00    
      7      1     40     12       13.00           13.00    
      8      1     40     13       12.50           12.50    
      9      1     40     14       12.00           12.00    
     10      1     40     15       11.40           11.40    


     10 TIME-VARIANT SPECIFIED-HEAD CELLS

 SOLVING FOR HEAD 


    10 CALLS TO PCG ROUTINE FOR TIME STEP   1 IN STRESS PERIOD    1
   145 TOTAL ITERATIONS

 MAXIMUM HEAD CHANGE FOR EACH ITERATION (1 INDICATES THE FIRST INNER ITERATION):

    HEAD CHANGE    HEAD CHANGE    HEAD CHANGE    HEAD CHANGE    HEAD CHANGE 
   LAYER,ROW,COL  LAYER,ROW,COL  LAYER,ROW,COL  LAYER,ROW,COL  LAYER,ROW,COL
 ---------------------------------------------------------------------------
  1  -91.99      0  -40.95      0   25.47      0   15.92      0   6.517    
   (  1, 39,  9)  (  1,  9,  4)  (  1,  9,  4)  (  1, 39,  9)  (  1, 35, 10)
  0  -3.560      0  -1.875      0 -0.6099      0 -0.3565      0 -0.1458    
   (  1, 30,  7)  (  1, 19,  2)  (  1, 37,  5)  (  1,  8,  5)  (  1, 30,  7)
  0 -0.8878E-01  0 -0.6548E-01  0  0.5795E-01  0  0.2144E-01  0 -0.8489E-02
   (  1,  8,  5)  (  1,  9,  4)  (  1,  9,  4)  (  1, 36, 11)  (  1, 38, 12)
  0  0.3571E-02  0 -0.1260E-02  0 -0.5588E-03  0  0.3321E-03  0 -0.2947E-03
   (  1, 37, 10)  (  1, 35,  8)  (  1,  1,  2)  (  1, 30,  6)  (  1,  9,  4)
  0  0.1752E-03  0 -0.1155E-03  0  0.4527E-04  0  0.4052E-04  0  0.1325E-04
   (  1,  9,  4)  (  1, 10,  1)  (  1, 36, 10)  (  1, 29,  7)  (  1, 16,  3)
  1   4.974      0   3.900      0   2.348      0   1.045      0  0.6600    
   (  1,  9,  4)  (  1,  8,  5)  (  1, 32,  1)  (  1, 30,  7)  (  1,  8,  5)
  0  0.2923      0  0.2086      0  0.1250      0  0.4271E-01  0  0.3210E-01
   (  1, 32,  6)  (  1,  2,  4)  (  1,  4,  1)  (  1, 38, 13)  (  1,  4,  1)
  0  0.1204E-01  0 -0.1029E-01  0  0.5700E-02  0 -0.2462E-02  0 -0.7009E-03
   (  1,  2,  8)  (  1,  9,  4)  (  1,  1,  2)  (  1, 32,  9)  (  1, 25,  3)
  0  0.3182E-03  0 -0.1484E-03  0  0.7909E-04  0 -0.3808E-04  0 -0.3659E-04
   (  1, 36, 10)  (  1, 28,  1)  (  1, 30,  6)  (  1, 36, 10)  (  1,  9,  4)
  0  0.2102E-04  0  0.9801E-05  0  0.4320E-05  0 -0.2860E-05  1  -1.546    
   (  1,  9,  1)  (  1, 37, 19)  (  1, 27,  6)  (  1, 29,  7)  (  1,  9,  4)
  0  -1.461      0  -1.287      0 -0.6268      0 -0.3367      0 -0.1038    
   (  1,  8,  5)  (  1, 16,  1)  (  1, 23,  1)  (  1, 10,  4)  (  1, 27,  1)
  0 -0.1301      0 -0.4315E-01  0 -0.2644E-01  0  0.1312E-01  0 -0.6035E-02
   (  1,  1,  5)  (  1,  1,  9)  (  1, 39,  9)  (  1, 27,  8)  (  1,  9,  1)
  0  0.7182E-02  0  0.2591E-02  0  0.1270E-02  0 -0.5709E-03  0 -0.3656E-03
   (  1,  9,  4)  (  1, 25,  9)  (  1, 33,  2)  (  1, 16,  9)  (  1, 36, 10)
  0 -0.8227E-04  0  0.7352E-04  0 -0.3223E-04  0  0.2220E-04  0  0.1709E-04
   (  1, 39, 14)  (  1, 30,  6)  (  1,  9,  1)  (  1,  9,  3)  (  1, 36, 10)
  0 -0.7567E-05  0 -0.4894E-05  1  0.3679      0  0.3360      0  0.2947    
   (  1, 32,  6)  (  1, 31, 10)  (  1,  9,  4)  (  1,  8,  5)  (  1, 16,  1)
  0  0.1368      0  0.7956E-01  0  0.2400E-01  0 -0.2552E-01  0  0.8538E-02
   (  1, 22,  1)  (  1, 10,  4)  (  1,  1,  6)  (  1, 31,  5)  (  1, 19,  2)
  0  0.5588E-02  0 -0.2519E-02  0 -0.1268E-02  0  0.8559E-03  0  0.4224E-03
   (  1, 39,  9)  (  1, 32,  1)  (  1, 10,  2)  (  1,  9,  4)  (  1, 35, 11)
  0 -0.2273E-03  0  0.8935E-04  0  0.4889E-04  0 -0.2237E-04  0 -0.1037E-04
   (  1, 37, 10)  (  1, 30, 10)  (  1, 36, 10)  (  1, 25, 10)  (  1, 37, 12)
  0  0.7120E-05  1 -0.7598E-01  0 -0.7621E-01  0 -0.5865E-01  0 -0.2798E-01
   (  1, 30,  7)  (  1,  9,  4)  (  1, 13,  1)  (  1, 16,  1)  (  1, 22,  1)
  0 -0.1656E-01  0 -0.6495E-02  0  0.5204E-02  0 -0.1861E-02  0 -0.1139E-02
   (  1, 10,  4)  (  1,  1,  5)  (  1, 31,  4)  (  1, 19,  2)  (  1, 37,  5)
  0 -0.5203E-03  0  0.3809E-03  0 -0.2163E-03  0 -0.1093E-03  0 -0.5456E-04
   (  1, 36, 10)  (  1,  9,  2)  (  1,  9,  4)  (  1, 36,  8)  (  1, 34, 10)
  0 -0.2125E-04  0 -0.1027E-04  0  0.5202E-05  1  0.1254E-01  0  0.1325E-01
   (  1, 32,  5)  (  1, 24,  9)  (  1, 26, 10)  (  1,  9,  3)  (  1, 13,  1)
  0  0.9022E-02  0  0.5020E-02  0 -0.2092E-02  0  0.1322E-02  0 -0.5001E-03
   (  1, 16,  1)  (  1, 21,  1)  (  1, 30,  7)  (  1,  1,  5)  (  1, 31,  3)
  0  0.3016E-03  0  0.1807E-03  0  0.7833E-04  0  0.5825E-04  0 -0.4174E-04
   (  1, 32,  6)  (  1, 37,  5)  (  1, 36, 10)  (  1,  9,  4)  (  1, 10,  2)
  0  0.1379E-04  0  0.9240E-05  1 -0.1750E-02  0 -0.1922E-02  0 -0.1137E-02
   (  1,  1,  2)  (  1, 34, 10)  (  1,  9,  3)  (  1, 13,  1)  (  1, 16,  1)
  0 -0.7481E-03  0  0.2627E-03  0 -0.1131E-03  0  0.4502E-04  0 -0.4215E-04
   (  1, 11,  4)  (  1, 32,  6)  (  1,  1,  6)  (  1, 30,  7)  (  1, 29,  7)
  0 -0.2318E-04  0 -0.1294E-04  0  0.8223E-05  1  0.2037E-03  0  0.2363E-03
   (  1, 37,  5)  (  1, 35, 10)  (  1,  9,  2)  (  1,  9,  2)  (  1, 13,  1)
  0  0.1189E-03  0  0.8657E-04  0  0.2167E-04  0 -0.2509E-04  0  0.7941E-05
   (  1, 16,  1)  (  1, 11,  4)  (  1, 30,  7)  (  1, 27,  4)  (  1, 33,  8)
  1 -0.2127E-04  0 -0.2037E-04  0 -0.1248E-04  0 -0.6617E-05  1 -0.3404E-05
   (  1, 10,  3)  (  1, 13,  1)  (  1, 14,  1)  (  1, 19,  1)  (  1,  8,  5)

 MAXIMUM RESIDUAL FOR EACH ITERATION (1 INDICATES THE FIRST INNER ITERATION):

    RESIDUAL       RESIDUAL       RESIDUAL       RESIDUAL       RESIDUAL    
   LAYER,ROW,COL  LAYER,ROW,COL  LAYER,ROW,COL  LAYER,ROW,COL  LAYER,ROW,COL
 ---------------------------------------------------------------------------
  1  -5806.      0  -4175.      0  -2962.      0  -1704.      0  -765.9    
   (  1, 39,  9)  (  1, 39,  9)  (  1, 39,  7)  (  1, 39,  7)  (  1, 39,  7)
  0  -428.7      0   224.9      0  -111.9      0  -76.89      0  -46.94    
   (  1, 39,  7)  (  1, 38,  7)  (  1, 39, 15)  (  1, 39, 15)  (  1, 39, 15)
  0  -29.83      0  -24.94      0  -14.48      0  -7.278      0  -3.421    
   (  1, 39, 15)  (  1, 39, 15)  (  1, 39, 15)  (  1, 39, 15)  (  1, 39, 15)
  0  -1.660      0 -0.7653      0 -0.3003      0 -0.1806      0 -0.1262    
   (  1, 39, 15)  (  1, 39, 15)  (  1, 39, 15)  (  1, 39, 15)  (  1, 39, 15)
  0 -0.9042E-01  0 -0.4238E-01  0 -0.1898E-01  0 -0.1143E-01  0 -0.4862E-02
   (  1, 39, 15)  (  1, 39, 15)  (  1, 39, 15)  (  1, 39, 15)  (  1, 39, 15)
  1  -248.2      0  -206.8      0  -149.3      0  -106.7      0  -59.22    
   (  1, 10, 15)  (  1, 10, 15)  (  1, 10, 15)  (  1, 10, 15)  (  1, 10, 15)
  0  -37.19      0  -19.61      0  -10.87      0  -5.534      0  -2.652    
   (  1, 10, 15)  (  1, 10, 15)  (  1,  1, 15)  (  1,  1, 15)  (  1,  1, 15)
  0  -1.192      0 -0.9420      0 -0.3768      0 -0.1689      0 -0.8396E-01
   (  1,  1, 15)  (  1,  1, 15)  (  1,  1, 15)  (  1,  1, 15)  (  1,  1, 15)
  0 -0.3857E-01  0 -0.1749E-01  0 -0.1200E-01  0 -0.7050E-02  0 -0.5495E-02
   (  1,  1, 15)  (  1,  1, 15)  (  1,  1, 15)  (  1,  1, 15)  (  1,  1, 15)
  0 -0.3429E-02  0 -0.1784E-02  0 -0.1042E-02  0 -0.5352E-03  1   115.0    
   (  1,  1, 15)  (  1,  1, 15)  (  1,  1, 15)  (  1,  1, 15)  (  1,  8,  5)
  0   40.25      0   27.40      0   25.77      0  -14.04      0  -8.658    
   (  1,  1,  2)  (  1, 10,  4)  (  1, 10,  4)  (  1,  8,  6)  (  1,  8,  6)
  0   5.663      0   3.307      0   1.992      0   1.125      0  0.7988    
   (  1,  2,  1)  (  1,  1, 15)  (  1,  1, 15)  (  1,  1, 15)  (  1,  1, 15)
  0  0.4627      0  0.2158      0  0.1047      0  0.4863E-01  0  0.2169E-01
   (  1,  1, 15)  (  1,  1,  2)  (  1,  1, 15)  (  1,  1, 15)  (  1,  1, 15)
  0  0.1150E-01  0  0.7056E-02  0  0.4790E-02  0  0.3781E-02  0  0.1860E-02
   (  1,  2,  1)  (  1,  2,  1)  (  1,  2,  1)  (  1,  2,  1)  (  1,  1, 15)
  0  0.1376E-02  0  0.6719E-03  1  -22.93      0   7.951      0  -6.482    
   (  1,  1, 15)  (  1,  1, 15)  (  1,  8,  5)  (  1,  8,  7)  (  1, 10,  4)
  0  -5.530      0   2.840      0   1.495      0 -0.9677      0 -0.5469    
   (  1, 10,  4)  (  1,  8,  6)  (  1,  8,  6)  (  1,  7,  6)  (  1,  1, 15)
  0 -0.3372      0 -0.1612      0 -0.1044      0 -0.7909E-01  0 -0.3343E-01
   (  1,  1, 15)  (  1,  1, 15)  (  1,  1, 15)  (  1,  1, 15)  (  1,  1, 15)
  0 -0.1828E-01  0 -0.8281E-02  0 -0.3675E-02  0 -0.1989E-02  0 -0.1109E-02
   (  1,  1, 15)  (  1,  1, 15)  (  1,  1, 15)  (  1,  2,  1)  (  1,  2,  1)
  0 -0.7428E-03  1  -5.433      0  -1.859      0   1.780      0   1.323    
   (  1,  2,  1)  (  1,  9,  4)  (  1,  8,  7)  (  1, 10,  4)  (  1, 10,  4)
  0 -0.6265      0 -0.3436      0 -0.2253      0  0.1144      0  0.6578E-01
   (  1,  8,  6)  (  1, 10,  3)  (  1, 10,  3)  (  1,  7,  6)  (  1,  1, 15)
  0  0.3870E-01  0  0.2480E-01  0  0.1696E-01  0  0.7284E-02  0  0.3679E-02
   (  1,  1, 15)  (  1,  1, 15)  (  1,  1, 15)  (  1,  1,  2)  (  1,  1, 15)
  0  0.1625E-02  0  0.7974E-03  0  0.4355E-03  1  0.9462      0  0.3258    
   (  1,  1, 15)  (  1,  1, 15)  (  1,  2,  1)  (  1,  9,  4)  (  1, 21,  4)
  0 -0.3236      0 -0.1832      0 -0.1101      0  0.5228E-01  0  0.3553E-01
   (  1, 10,  4)  (  1, 10,  4)  (  1, 10,  4)  (  1, 10,  3)  (  1, 10,  3)
  0 -0.1940E-01  0 -0.9617E-02  0 -0.5995E-02  0 -0.5010E-02  0 -0.2610E-02
   (  1,  7,  6)  (  1,  1, 15)  (  1,  1, 15)  (  1,  1, 15)  (  1,  1,  2)
  0 -0.1167E-02  0 -0.5581E-03  1 -0.1405      0 -0.5175E-01  0  0.4863E-01
   (  1,  1,  2)  (  1,  1, 15)  (  1,  9,  4)  (  1, 21,  4)  (  1, 10,  4)
  0  0.2159E-01  0  0.1225E-01  0 -0.7129E-02  0 -0.4107E-02  0 -0.2393E-02
   (  1, 10,  4)  (  1, 10,  4)  (  1, 10,  3)  (  1, 10,  3)  (  1, 11,  1)
  0  0.1253E-02  0 -0.7988E-03  0 -0.6524E-03  1  0.1769E-01  0  0.6761E-02
   (  1,  7,  6)  (  1, 11,  2)  (  1, 11,  2)  (  1,  9,  4)  (  1, 21,  4)
  0 -0.5976E-02  0 -0.2938E-02  0 -0.1981E-02  0  0.8818E-03  0  0.6150E-03
   (  1, 10,  4)  (  1, 10,  4)  (  1, 10,  4)  (  1, 10,  3)  (  1, 10,  3)
  1 -0.1938E-02  0  0.7384E-03  0  0.5931E-03  0  0.3345E-03  1  0.2579E-03
   (  1,  9,  4)  (  1, 18,  1)  (  1, 18,  1)  (  1, 10,  4)  (  1, 10,  4)



 OUTPUT CONTROL FOR STRESS PERIOD    1   TIME STEP    1
    SAVE HEAD FOR ALL LAYERS
    SAVE BUDGET
    PRINT BUDGET
 UBDSV2 SAVING "   CONSTANT HEAD" ON UNIT  50 AT TIME STEP  1, STRESS PERIOD   1
 UBDSV1 SAVING "FLOW RIGHT FACE " ON UNIT  50 AT TIME STEP  1, STRESS PERIOD   1
 UBDSV1 SAVING "FLOW FRONT FACE " ON UNIT  50 AT TIME STEP  1, STRESS PERIOD   1
 UBDSV4 SAVING "           WELLS" ON UNIT  50 AT TIME STEP  1, STRESS PERIOD   1
 UBDSV4 SAVING "   RIVER LEAKAGE" ON UNIT  50 AT TIME STEP  1, STRESS PERIOD   1
 UBDSV3 SAVING "        RECHARGE" ON UNIT  50 AT TIME STEP  1, STRESS PERIOD   1

 HEAD WILL BE SAVED ON UNIT   30 AT END OF TIME STEP    1, STRESS PERIOD    1
1
  VOLUMETRIC BUDGET FOR ENTIRE MODEL AT END OF TIME STEP    1, STRESS PERIOD   1
  ------------------------------------------------------------------------------

     CUMULATIVE VOLUMES      L**3       RATES FOR THIS TIME STEP      L**3/T
     ------------------                 ------------------------

           IN:                                      IN:
           ---                                      ---
             STORAGE =           0.0000               STORAGE =           0.0000
       CONSTANT HEAD =           0.0000         CONSTANT HEAD =           0.0000
               WELLS =           0.0000                 WELLS =           0.0000
       RIVER LEAKAGE =         208.1171         RIVER LEAKAGE =         208.1171
            RECHARGE =        6004.7998              RECHARGE =        6004.7998

            TOTAL IN =        6212.9170              TOTAL IN =        6212.9170

          OUT:                                     OUT:
          ----                                     ----
             STORAGE =           0.0000               STORAGE =           0.0000
       CONSTANT HEAD =         514.1938         CONSTANT HEAD =         514.1938
               WELLS =           0.0000                 WELLS =           0.0000
       RIVER LEAKAGE =        5698.7476         RIVER LEAKAGE =        5698.7476
            RECHARGE =           0.0000              RECHARGE =           0.0000

           TOTAL OUT =        6212.9414             TOTAL OUT =        6212.9414

            IN - OUT =      -2.4414E-02              IN - OUT =      -2.4414E-02

 PERCENT DISCREPANCY =          -0.00     PERCENT DISCREPANCY =          -0.00






         TIME SUMMARY AT END OF TIME STEP    1 IN STRESS PERIOD    1
                    SECONDS     MINUTES      HOURS       DAYS        YEARS
                    -----------------------------------------------------------
   TIME STEP LENGTH  86400.      1440.0      24.000      1.0000     2.73785E-03
 STRESS PERIOD TIME  86400.      1440.0      24.000      1.0000     2.73785E-03
         TOTAL TIME  86400.      1440.0      24.000      1.0000     2.73785E-03
1
1
                            STRESS PERIOD NO.    2, LENGTH =   1.000000    
                            -----------------------------------------------

                              NUMBER OF TIME STEPS =     1

                               MULTIPLIER FOR DELT =     1.000

                            INITIAL TIME STEP SIZE =   1.000000    

 WELL NO.  LAYER   ROW   COL   STRESS RATE         IFACE           
 ------------------------------------------------------------------
      1      1      9     16      -708.5           0.000    
      2      1     11     13      -354.2           0.000    
      3      1     20     14      -337.0           0.000    
      4      1     26     10      -71.71           0.000    
      5      1     29      6      -62.21           0.000    
      6      1     34     12      -371.5           0.000    

      6 WELLS

 REUSING NON-PARAMETER RIVER REACHES FROM LAST STRESS PERIOD

     40 RIVER REACHES

 REUSING RECH FROM LAST STRESS PERIOD

 REUSING NON-PARAMETER SPECIFIED-HEAD DATA FROM LAST STRESS PERIOD


     10 TIME-VARIANT SPECIFIED-HEAD CELLS

 SOLVING FOR HEAD 


    10 CALLS TO PCG ROUTINE FOR TIME STEP   1 IN STRESS PERIOD    2
   114 TOTAL ITERATIONS

 MAXIMUM HEAD CHANGE FOR EACH ITERATION (1 INDICATES THE FIRST INNER ITERATION):

    HEAD CHANGE    HEAD CHANGE    HEAD CHANGE    HEAD CHANGE    HEAD CHANGE 
   LAYER,ROW,COL  LAYER,ROW,COL  LAYER,ROW,COL  LAYER,ROW,COL  LAYER,ROW,COL
 ---------------------------------------------------------------------------
  1  -3.623      0  -1.495      0 -0.7333      0  0.5561      0  0.3016    
   (  1, 34, 12)  (  1, 34, 12)  (  1,  9,  4)  (  1, 33, 11)  (  1, 29,  1)
  0 -0.1830      0  0.1186      0 -0.6149E-01  0  0.3664E-01  0 -0.2098E-01
   (  1, 35, 11)  (  1, 29, 11)  (  1, 33,  8)  (  1,  7,  3)  (  1,  7,  3)
  0 -0.7153E-02  0 -0.4209E-02  0  0.2517E-02  0  0.1652E-02  0  0.6655E-03
   (  1, 39, 13)  (  1, 26, 11)  (  1,  9,  4)  (  1, 26, 11)  (  1, 36,  7)
  0 -0.4020E-03  0 -0.1331E-03  0  0.8448E-04  0 -0.4343E-04  0  0.3409E-04
   (  1, 29,  7)  (  1, 30,  6)  (  1, 26,  1)  (  1, 30,  6)  (  1, 36, 10)
  0 -0.1605E-04  0  0.1079E-04  0  0.3492E-05  1  0.4393      0 -0.3817    
   (  1, 32,  9)  (  1, 29,  7)  (  1, 35, 11)  (  1,  9,  4)  (  1, 34, 12)
  0 -0.3187      0  0.8661E-01  0 -0.7813E-01  0 -0.3945E-01  0  0.2282E-01
   (  1, 34, 12)  (  1, 30,  7)  (  1, 35, 11)  (  1, 35, 11)  (  1, 29,  7)
  0 -0.1312E-01  0 -0.6751E-02  0 -0.2959E-02  0  0.1734E-02  0 -0.2033E-02
   (  1, 33, 13)  (  1, 32,  1)  (  1, 33,  9)  (  1, 16,  3)  (  1,  9,  4)
  0 -0.8904E-03  0  0.3508E-03  0  0.1143E-03  0  0.9008E-04  0 -0.2812E-04
   (  1, 26, 11)  (  1, 26, 11)  (  1, 16,  9)  (  1,  5,  7)  (  1, 30,  7)
  0  0.1752E-04  0  0.1523E-04  0 -0.7785E-05  0 -0.4545E-05  1 -0.9826E-01
   (  1, 31,  7)  (  1, 13,  3)  (  1,  9,  4)  (  1, 38,  8)  (  1,  9,  4)
  0 -0.1055      0 -0.5932E-01  0 -0.2561E-01  0  0.1707E-01  0 -0.8467E-02
   (  1,  8,  5)  (  1, 34, 12)  (  1, 23,  1)  (  1, 33, 12)  (  1, 27,  1)
  0  0.6681E-02  0 -0.3834E-02  0 -0.1463E-02  0 -0.6906E-03  0 -0.5736E-03
   (  1, 35, 10)  (  1, 35, 11)  (  1, 31,  1)  (  1, 36, 10)  (  1,  9,  4)
  0  0.3060E-03  0 -0.1971E-03  0  0.1058E-03  0 -0.2592E-04  0 -0.1674E-04
   (  1, 27, 10)  (  1, 34, 10)  (  1, 37, 10)  (  1, 24,  1)  (  1, 20,  3)
  0 -0.8328E-05  1  0.2204E-01  0  0.2325E-01  0 -0.2059E-01  0  0.6383E-02
   (  1, 21,  1)  (  1,  9,  4)  (  1,  8,  5)  (  1, 34, 12)  (  1, 23,  1)
  0 -0.4220E-02  0  0.1813E-02  0 -0.1346E-02  0  0.6566E-03  0  0.3248E-03
   (  1, 30,  7)  (  1,  1,  5)  (  1, 31,  5)  (  1, 19,  2)  (  1,  2,  1)
  0  0.1883E-03  0 -0.9399E-04  0  0.5091E-04  0  0.3090E-04  0  0.2144E-04
   (  1, 35, 10)  (  1, 36, 10)  (  1,  9,  4)  (  1, 33,  8)  (  1, 33,  9)
  0  0.8405E-05  1 -0.4320E-02  0 -0.4425E-02  0 -0.3582E-02  0 -0.1081E-02
   (  1, 36,  7)  (  1,  9,  4)  (  1, 12,  1)  (  1, 34, 12)  (  1, 20,  1)
  0 -0.4974E-03  0  0.4937E-03  0 -0.2837E-03  0 -0.1155E-03  0 -0.6420E-04
   (  1, 35, 11)  (  1, 27,  4)  (  1, 30,  7)  (  1, 18,  2)  (  1, 37,  5)
  0 -0.4575E-04  0  0.2284E-04  0 -0.1493E-04  0 -0.7397E-05  1  0.7229E-03
   (  1, 36, 10)  (  1,  9,  3)  (  1, 16,  4)  (  1,  1,  2)  (  1,  9,  4)
  0 -0.8306E-03  0 -0.7090E-03  0 -0.1996E-03  0  0.8907E-04  0 -0.8832E-04
   (  1, 34, 12)  (  1, 34, 12)  (  1, 34, 12)  (  1, 33, 12)  (  1, 35, 11)
  0  0.2618E-04  0  0.1338E-04  0 -0.1006E-04  0  0.8830E-05  1 -0.1087E-03
   (  1, 18,  2)  (  1, 35, 10)  (  1, 30,  6)  (  1, 35, 10)  (  1,  9,  3)
  0 -0.2098E-03  0 -0.1023E-03  0  0.3162E-04  0 -0.2256E-04  0 -0.1397E-04
   (  1, 34, 12)  (  1, 34, 12)  (  1, 30,  6)  (  1, 35, 11)  (  1, 33, 13)
  0 -0.5872E-05  1  0.2018E-04  0 -0.4707E-04  0 -0.1485E-04  0 -0.4716E-05
   (  1, 35, 11)  (  1, 10,  2)  (  1, 34, 12)  (  1, 34, 12)  (  1, 18,  4)
  0  0.4297E-05  1 -0.4374E-05  0 -0.5003E-05  1 -0.2422E-05
   (  1, 33, 12)  (  1,  9,  4)  (  1, 34, 12)  (  1,  9,  3)

 MAXIMUM RESIDUAL FOR EACH ITERATION (1 INDICATES THE FIRST INNER ITERATION):

    RESIDUAL       RESIDUAL       RESIDUAL       RESIDUAL       RESIDUAL    
   LAYER,ROW,COL  LAYER,ROW,COL  LAYER,ROW,COL  LAYER,ROW,COL  LAYER,ROW,COL
 ---------------------------------------------------------------------------
  1   526.9      0   391.0      0   291.0      0   144.8      0   90.97    
   (  1,  9, 16)  (  1,  9, 16)  (  1,  9, 16)  (  1,  9, 16)  (  1,  9, 16)
  0   38.01      0   15.74      0   8.707      0   5.239      0   2.872    
   (  1,  9, 16)  (  1, 19, 15)  (  1,  8, 17)  (  1,  8, 17)  (  1,  8, 17)
  0   1.299      0  0.6579      0  0.5565      0  0.2986      0  0.1523    
   (  1, 19, 15)  (  1, 19, 15)  (  1, 19, 15)  (  1,  9, 15)  (  1,  9, 15)
  0  0.7604E-01  0  0.3198E-01  0  0.1568E-01  0  0.1163E-01  0  0.5340E-02
   (  1,  9, 15)  (  1,  9, 15)  (  1,  9, 15)  (  1,  9, 15)  (  1,  9, 15)
  0  0.3120E-02  0  0.1985E-02  0  0.9731E-03  1   67.08      0   40.91    
   (  1,  9, 15)  (  1,  9, 15)  (  1,  9, 15)  (  1, 34, 12)  (  1,  9, 16)
  0   26.85      0   17.02      0   8.315      0   3.883      0   2.043    
   (  1,  9, 16)  (  1,  9, 16)  (  1,  9, 16)  (  1,  9, 16)  (  1,  9, 16)
  0   1.073      0  0.6404      0  0.3640      0  0.2089      0  0.1222    
   (  1,  8, 17)  (  1, 32, 14)  (  1, 32, 14)  (  1, 32, 14)  (  1, 32, 14)
  0  0.6359E-01  0  0.3566E-01  0  0.2077E-01  0  0.1124E-01  0  0.5852E-02
   (  1, 31, 15)  (  1, 31, 15)  (  1, 31, 15)  (  1, 31, 15)  (  1, 31, 15)
  0  0.4383E-02  0  0.2294E-02  0  0.1981E-02  0  0.8781E-03  1   17.19    
   (  1, 31, 15)  (  1, 31, 15)  (  1, 31, 15)  (  1, 31, 15)  (  1, 34, 12)
  0   9.542      0   3.434      0   2.855      0   1.891      0   1.058    
   (  1, 34, 12)  (  1, 35, 11)  (  1, 35, 11)  (  1, 35, 11)  (  1, 35, 11)
  0 -0.4647      0 -0.2494      0  0.1546      0  0.8239E-01  0  0.6189E-01
   (  1, 32, 13)  (  1, 32, 13)  (  1, 32, 14)  (  1, 32, 14)  (  1, 32, 14)
  0  0.2854E-01  0 -0.1250E-01  0  0.7329E-02  0  0.3674E-02  0  0.1961E-02
   (  1, 32, 14)  (  1, 31, 14)  (  1, 37,  9)  (  1, 31, 15)  (  1, 31, 15)
  0  0.9844E-03  1   3.514      0   2.158      0 -0.6425      0  0.5792    
   (  1, 31, 15)  (  1, 34, 12)  (  1, 34, 12)  (  1, 34, 11)  (  1, 35, 11)
  0  0.3967      0  0.1797      0 -0.1077      0 -0.4599E-01  0  0.3203E-01
   (  1, 35, 11)  (  1, 35, 11)  (  1, 35, 10)  (  1, 32, 13)  (  1, 32, 14)
  0  0.1562E-01  0 -0.6224E-02  0 -0.5593E-02  0  0.3483E-02  0  0.1666E-02
   (  1, 32, 14)  (  1, 31, 14)  (  1, 31, 14)  (  1, 37,  9)  (  1, 37,  9)
  0  0.6185E-03  1  0.7296      0  0.4503      0  0.1347      0  0.1119    
   (  1, 37,  9)  (  1, 34, 12)  (  1, 34, 12)  (  1, 35, 11)  (  1, 35, 11)
  0  0.8193E-01  0  0.3492E-01  0 -0.1806E-01  0 -0.1237E-01  0  0.6470E-02
   (  1, 35, 11)  (  1, 35, 11)  (  1, 35, 10)  (  1, 32, 13)  (  1, 32, 14)
  0  0.3983E-02  0  0.3242E-02  0  0.1293E-02  0 -0.5507E-03  1  0.1528    
   (  1, 32, 14)  (  1, 32, 14)  (  1, 32, 14)  (  1, 31, 14)  (  1, 34, 12)
  0  0.8655E-01  0  0.2809E-01  0  0.2107E-01  0  0.1462E-01  0 -0.4942E-02
   (  1, 34, 12)  (  1, 35, 11)  (  1, 35, 11)  (  1, 35, 11)  (  1, 35, 10)
  0 -0.2812E-02  0  0.1615E-02  0  0.1374E-02  0  0.7383E-03  1  0.3096E-01
   (  1, 35, 10)  (  1, 32, 14)  (  1, 32, 14)  (  1, 32, 14)  (  1, 34, 12)
  0  0.1304E-01  0  0.5903E-02  0  0.4893E-02  0  0.3345E-02  0 -0.9402E-03
   (  1, 34, 12)  (  1, 35, 11)  (  1, 35, 11)  (  1, 35, 11)  (  1, 35, 10)
  0 -0.6284E-03  1  0.5906E-02  0  0.2211E-02  0  0.1383E-02  0  0.1055E-02
   (  1, 32, 13)  (  1, 34, 12)  (  1, 34, 12)  (  1, 35, 11)  (  1, 35, 11)
  0  0.6352E-03  1  0.1241E-02  0  0.7752E-03  1  0.8518E-03
   (  1, 35, 11)  (  1, 34, 12)  (  1, 34, 12)  (  1, 34, 12)



 OUTPUT CONTROL FOR STRESS PERIOD    2   TIME STEP    1
    SAVE HEAD FOR ALL LAYERS
    SAVE BUDGET
    PRINT BUDGET
 UBDSV2 SAVING "   CONSTANT HEAD" ON UNIT  50 AT TIME STEP  1, STRESS PERIOD   2
 UBDSV1 SAVING "FLOW RIGHT FACE " ON UNIT  50 AT TIME STEP  1, STRESS PERIOD   2
 UBDSV1 SAVING "FLOW FRONT FACE " ON UNIT  50 AT TIME STEP  1, STRESS PERIOD   2
 UBDSV4 SAVING "           WELLS" ON UNIT  50 AT TIME STEP  1, STRESS PERIOD   2
 UBDSV4 SAVING "   RIVER LEAKAGE" ON UNIT  50 AT TIME STEP  1, STRESS PERIOD   2
 UBDSV3 SAVING "        RECHARGE" ON UNIT  50 AT TIME STEP  1, STRESS PERIOD   2

 HEAD WILL BE SAVED ON UNIT   30 AT END OF TIME STEP    1, STRESS PERIOD    2
1
  VOLUMETRIC BUDGET FOR ENTIRE MODEL AT END OF TIME STEP    1, STRESS PERIOD   2
  ------------------------------------------------------------------------------

     CUMULATIVE VOLUMES      L**3       RATES FOR THIS TIME STEP      L**3/T
     ------------------                 ------------------------

           IN:                                      IN:
           ---                                      ---
             STORAGE =           0.0000               STORAGE =           0.0000
       CONSTANT HEAD =           0.0000         CONSTANT HEAD =           0.0000
               WELLS =           0.0000                 WELLS =           0.0000
       RIVER LEAKAGE =         570.4955         RIVER LEAKAGE =         362.3784
            RECHARGE =       12009.5996              RECHARGE =        6004.7998

            TOTAL IN =       12580.0947              TOTAL IN =        6367.1782

          OUT:                                     OUT:
          ----                                     ----
             STORAGE =           0.0000               STORAGE =           0.0000
       CONSTANT HEAD =         923.3219         CONSTANT HEAD =         409.1281
               WELLS =        1905.1200                 WELLS =        1905.1200
       RIVER LEAKAGE =        9751.7021         RIVER LEAKAGE =        4052.9543
            RECHARGE =           0.0000              RECHARGE =           0.0000

           TOTAL OUT =       12580.1445             TOTAL OUT =        6367.2021

            IN - OUT =      -4.9805E-02              IN - OUT =      -2.3926E-02

 PERCENT DISCREPANCY =          -0.00     PERCENT DISCREPANCY =          -0.00






         TIME SUMMARY AT END OF TIME STEP    1 IN STRESS PERIOD    2
                    SECONDS     MINUTES      HOURS       DAYS        YEARS
                    -----------------------------------------------------------
   TIME STEP LENGTH  86400.      1440.0      24.000      1.0000     2.73785E-03
 STRESS PERIOD TIME  86400.      1440.0      24.000      1.0000     2.73785E-03
         TOTAL TIME 1.72800E+05  2880.0      48.000      2.0000     5.47570E-03
1

 HEAD AND DRAWDOWN OBSERVATIONS
 OBSERVATION       OBSERVED           SIMULATED
   NAME              VALUE              VALUE             DIFFERENCE
 --------------------------------------------------------------------
 OBS1            22.461399078        22.461421967      -2.28881835938E-05
 OBS2            19.903699875        19.903720856      -2.09808349609E-05
 OBS3            22.996599197        22.996591568       7.62939453125E-06
 OBS4            29.157199860        29.157167435       3.24249267578E-05
 OBS5            18.913099289        18.913131714      -3.24249267578E-05
 OBS6            17.664600372        17.664646149      -4.57763671875E-05
 OBS7            18.925899506        18.925945282      -4.57763671875E-05
 OBS8            16.106199265        16.106174469       2.47955322266E-05
 OBS9            24.406700134        24.406661987       3.81469726562E-05
 OBS10           22.966400146        22.966432571      -3.24249267578E-05
 OBS11           15.195599556        15.195594788       4.76837158203E-06
 OBS12           20.425699234        20.425745010      -4.57763671875E-05
 OBS13           16.549600601        16.549566269       3.43322753906E-05
 OBS14           15.600000381        15.600000381        0.0000000000    
 OBS15           13.000000000        13.000000000        0.0000000000    
 OBS16           12.000000000        12.000000000        0.0000000000    
 OBS1p           22.294099808        22.294069290       3.05175781250E-05
 OBS2p           19.732500076        19.732547760      -4.76837158203E-05
 OBS3p           22.790100098        22.790060043       4.00543212891E-05
 OBS4p           28.832199097        28.832218170      -1.90734863281E-05
 OBS5p           18.497900009        18.497896194       3.81469726562E-06
 OBS6p           17.554800034        17.554800034        0.0000000000    
 OBS7p           18.364000320        18.363981247       1.90734863281E-05
 OBS8p           16.085599899        16.085620880      -2.09808349609E-05
 OBS9p           23.569200516        23.569169998       3.05175781250E-05
 OBS10p          22.039300919        22.039340973      -4.00543212891E-05
 OBS11p          15.186599731        15.186553955       4.57763671875E-05
 OBS12p          19.276800156        19.276775360       2.47955322266E-05
 OBS13p          15.086000443        15.085955620       4.48226928711E-05
 OBS14p          15.600000381        15.600000381        0.0000000000    
 OBS15p          13.000000000        13.000000000        0.0000000000    
 OBS16p          12.000000000        12.000000000        0.0000000000    

 HEAD/DRAWDOWN SUM OF SQUARED DIFFERENCE:    2.69811E-08

 Run end date and time (yyyy/mm/dd hh:mm:ss): 2018/08/21  5:48:27
 Elapsed run time:  0.022 Seconds

